<?xml version="1.0" encoding="UTF-8"?>
<!-- Simple 3-lane highway network for CATS simulation -->
<net version="1.16" xmlns:xsi="http://www.w3.org/2001/XMLSchema-instance" xsi:noNamespaceSchemaLocation="http://sumo.dlr.de/xsd/net_file.xsd">

    <location netOffset="0.00,0.00" convBoundary="0.00,0.00,2000.00,10.00" origBoundary="-10000000000.00,-10000000000.00,10000000000.00,10000000000.00" projParameter="!"/>

    <edge id="highway" from="start" to="end" priority="13" type="highway.motorway" numLanes="3" speed="33.33">
        <lane id="highway_0" index="0" speed="33.33" length="2000.00" shape="0.00,1.60 2000.00,1.60"/>
        <lane id="highway_1" index="1" speed="33.33" length="2000.00" shape="0.00,4.80 2000.00,4.80"/>
        <lane id="highway_2" index="2" speed="33.33" length="2000.00" shape="0.00,8.00 2000.00,8.00"/>
    </edge>

    <junction id="start" type="dead_end" x="0.00" y="5.00" incLanes="" intLanes="" shape="0.00,10.00 0.00,0.00"/>
    <junction id="end" type="dead_end" x="2000.00" y="5.00" incLanes="highway_0 highway_1 highway_2" intLanes="" shape="2000.00,0.00 2000.00,10.00"/>

</net>

