<?xml version='1.0' encoding='utf-8'?>
<additional><poi id="rsu_000000_L" x="490.053" y="99.232" z="0.0" radius="1.0" color="0,200,40" text="RSU" /><poi id="rsu_000001_R" x="492.407" y="87.466" z="0.0" radius="1.0" color="0,200,40" text="RSU" /><poi id="rsu_000002_L" x="980.344" y="197.292" z="0.0" radius="1.0" color="0,200,40" text="RSU" /><poi id="rsu_000003_R" x="982.697" y="185.525" z="0.0" radius="1.0" color="0,200,40" text="RSU" /><poi id="rsu_000004_L" x="1470.634" y="295.351" z="0.0" radius="1.0" color="0,200,40" text="RSU" /><poi id="rsu_000005_R" x="1472.987" y="283.584" z="0.0" radius="1.0" color="0,200,40" text="RSU" /><poi id="rsu_000006_L" x="1960.924" y="393.410" z="0.0" radius="1.0" color="0,200,40" text="RSU" /><poi id="rsu_000007_R" x="1963.277" y="381.643" z="0.0" radius="1.0" color="0,200,40" text="RSU" /><poi id="rsu_000008_L" x="2457.921" y="630.303" z="0.0" radius="1.0" color="0,200,40" text="RSU" /><poi id="rsu_000009_R" x="2463.287" y="619.569" z="0.0" radius="1.0" color="0,200,40" text="RSU" /><poi id="rsu_000010_L" x="2905.135" y="853.909" z="0.0" radius="1.0" color="0,200,40" text="RSU" /><poi id="rsu_000011_R" x="2910.501" y="843.176" z="0.0" radius="1.0" color="0,200,40" text="RSU" /><poi id="rsu_000012_L" x="3352.349" y="1077.515" z="0.0" radius="1.0" color="0,200,40" text="RSU" /><poi id="rsu_000013_R" x="3357.715" y="1066.782" z="0.0" radius="1.0" color="0,200,40" text="RSU" /><poi id="rsu_000014_L" x="3799.563" y="1301.121" z="0.0" radius="1.0" color="0,200,40" text="RSU" /><poi id="rsu_000015_R" x="3804.929" y="1290.388" z="0.0" radius="1.0" color="0,200,40" text="RSU" /><poi id="rsu_000016_L" x="4246.777" y="1524.727" z="0.0" radius="1.0" color="0,200,40" text="RSU" /><poi id="rsu_000017_R" x="4252.143" y="1513.994" z="0.0" radius="1.0" color="0,200,40" text="RSU" /><poi id="rsu_000018_L" x="4769.813" y="1937.817" z="0.0" radius="1.0" color="0,200,40" text="RSU" /><poi id="rsu_000019_R" x="4777.886" y="1928.937" z="0.0" radius="1.0" color="0,200,40" text="RSU" /><poi id="rsu_000020_L" x="5139.783" y="2274.154" z="0.0" radius="1.0" color="0,200,40" text="RSU" /><poi id="rsu_000021_R" x="5147.855" y="2265.274" z="0.0" radius="1.0" color="0,200,40" text="RSU" /><poi id="rsu_000022_L" x="5509.752" y="2610.491" z="0.0" radius="1.0" color="0,200,40" text="RSU" /><poi id="rsu_000023_R" x="5517.825" y="2601.611" z="0.0" radius="1.0" color="0,200,40" text="RSU" /><poi id="rsu_000024_L" x="5879.722" y="2946.828" z="0.0" radius="1.0" color="0,200,40" text="RSU" /><poi id="rsu_000025_R" x="5887.794" y="2937.948" z="0.0" radius="1.0" color="0,200,40" text="RSU" /><poi id="rsu_000026_L" x="6249.691" y="3283.165" z="0.0" radius="1.0" color="0,200,40" text="RSU" /><poi id="rsu_000027_R" x="6257.764" y="3274.285" z="0.0" radius="1.0" color="0,200,40" text="RSU" /><poi id="rsu_000028_L" x="7027.036" y="3886.133" z="0.0" radius="1.0" color="0,200,40" text="RSU" /><poi id="rsu_000029_R" x="7033.693" y="3876.149" z="0.0" radius="1.0" color="0,200,40" text="RSU" /><poi id="rsu_000030_L" x="7443.061" y="4163.484" z="0.0" radius="1.0" color="0,200,40" text="RSU" /><poi id="rsu_000031_R" x="7449.717" y="4153.500" z="0.0" radius="1.0" color="0,200,40" text="RSU" /><poi id="rsu_000032_L" x="7859.086" y="4440.835" z="0.0" radius="1.0" color="0,200,40" text="RSU" /><poi id="rsu_000033_R" x="7865.742" y="4430.850" z="0.0" radius="1.0" color="0,200,40" text="RSU" /><poi id="rsu_000034_L" x="8275.110" y="4718.186" z="0.0" radius="1.0" color="0,200,40" text="RSU" /><poi id="rsu_000035_R" x="8281.767" y="4708.201" z="0.0" radius="1.0" color="0,200,40" text="RSU" /><poi id="rsu_000036_L" x="8691.135" y="4995.537" z="0.0" radius="1.0" color="0,200,40" text="RSU" /><poi id="rsu_000037_R" x="8697.791" y="4985.552" z="0.0" radius="1.0" color="0,200,40" text="RSU" /><poi id="rsu_000038_L" x="1955.532" y="848.425" z="0.0" radius="1.0" color="0,200,40" text="RSU" /><poi id="rsu_000039_R" x="1947.046" y="839.940" z="0.0" radius="1.0" color="0,200,40" text="RSU" /></additional>