<trips>

<vType id="car" accel="2.6" decel="4.5" sigma="0.5" length="5" maxSpeed="25"/>

<trip id="veh1" type="car" depart="0" from="1015894852#4" to="-1192341483"/>

<trip id="veh2" type="car" depart="2" from="1015894852#4" to="-1192341483"/>

</trips>