<?xml version="1.0" encoding="UTF-8"?>

<!-- generated on 2026-03-13 00:05:14 by Eclipse SUMO netconvert Version 1.24.0
<netconvertConfiguration xmlns:xsi="http://www.w3.org/2001/XMLSchema-instance" xsi:noNamespaceSchemaLocation="http://sumo.dlr.de/xsd/netconvertConfiguration.xsd">

    <input>
        <osm-files value="chennai_map.osm"/>
    </input>

    <output>
        <output-file value="chennai.net.xml"/>
    </output>

    <projection>
        <proj.utm value="true"/>
    </projection>

</netconvertConfiguration>
-->

<net version="1.20" junctionCornerDetail="5" limitTurnSpeed="5.50" xmlns:xsi="http://www.w3.org/2001/XMLSchema-instance" xsi:noNamespaceSchemaLocation="http://sumo.dlr.de/xsd/net_file.xsd">

    <location netOffset="-413039.79,-1436102.79" convBoundary="0.00,0.00,6575.01,3833.57" origBoundary="79.941730,12.214176,80.282404,13.067183" projParameter="+proj=utm +zone=44 +ellps=WGS84 +datum=WGS84 +units=m +no_defs"/>

    <type id="highway.cycleway" priority="1" numLanes="1" speed="5.56" allow="bicycle" oneway="0" width="2.00"/>
    <type id="highway.footway" priority="1" numLanes="1" speed="2.78" allow="pedestrian" oneway="1" width="2.00"/>
    <type id="highway.living_street" priority="2" numLanes="1" speed="2.78" disallow="tram rail_urban rail rail_electric rail_fast ship container cable_car subway aircraft wheelchair scooter drone" oneway="0"/>
    <type id="highway.path" priority="1" numLanes="1" speed="5.56" allow="pedestrian bicycle" oneway="0" width="2.00"/>
    <type id="highway.pedestrian" priority="1" numLanes="1" speed="2.78" allow="pedestrian" oneway="1" width="2.00"/>
    <type id="highway.primary" priority="12" numLanes="2" speed="27.78" disallow="tram rail_urban rail rail_electric rail_fast ship container cable_car subway aircraft wheelchair scooter drone" oneway="0"/>
    <type id="highway.primary_link" priority="7" numLanes="1" speed="22.22" disallow="tram rail_urban rail rail_electric rail_fast ship container cable_car subway aircraft wheelchair scooter drone" oneway="0"/>
    <type id="highway.residential" priority="3" numLanes="1" speed="13.89" disallow="tram rail_urban rail rail_electric rail_fast ship container cable_car subway aircraft wheelchair scooter drone" oneway="0"/>
    <type id="highway.secondary" priority="11" numLanes="1" speed="27.78" disallow="tram rail_urban rail rail_electric rail_fast ship container cable_car subway aircraft wheelchair scooter drone" oneway="0"/>
    <type id="highway.service" priority="1" numLanes="1" speed="5.56" allow="pedestrian delivery bicycle" oneway="0"/>
    <type id="highway.tertiary" priority="10" numLanes="1" speed="22.22" disallow="tram rail_urban rail rail_electric rail_fast ship container cable_car subway aircraft wheelchair scooter drone" oneway="0"/>
    <type id="highway.track" priority="1" numLanes="1" speed="5.56" allow="pedestrian motorcycle moped bicycle" oneway="0"/>
    <type id="railway.rail" priority="20" numLanes="1" speed="44.44" allow="rail" oneway="1"/>
    <type id="railway.subway" priority="18" numLanes="1" speed="27.78" allow="subway" oneway="1"/>

    <edge id=":10172868202_0" function="internal">
        <lane id=":10172868202_0_0" index="0" disallow="tram rail_urban rail rail_electric rail_fast ship container cable_car subway aircraft wheelchair scooter drone" speed="6.97" length="9.58" shape="5102.97,2477.87 5100.26,2478.08 5098.19,2478.99 5096.77,2480.61 5096.00,2482.93"/>
    </edge>
    <edge id=":10172868202_1" function="internal">
        <lane id=":10172868202_1_0" index="0" disallow="tram rail_urban rail rail_electric rail_fast ship container cable_car subway aircraft wheelchair scooter drone" speed="7.85" length="14.55" shape="5102.97,2477.87 5099.00,2477.11 5096.35,2475.25 5095.02,2472.30 5095.00,2468.26"/>
    </edge>
    <edge id=":10172868202_2" function="internal">
        <lane id=":10172868202_2_0" index="0" disallow="tram rail_urban rail rail_electric rail_fast ship container cable_car subway aircraft wheelchair scooter drone" speed="3.65" length="4.67" shape="5102.97,2477.87 5101.81,2477.02 5101.45,2476.20 5101.89,2475.42 5103.12,2474.68"/>
    </edge>
    <edge id=":10172868202_3" function="internal">
        <lane id=":10172868202_3_0" index="0" disallow="tram rail_urban rail rail_electric rail_fast ship container cable_car subway aircraft wheelchair scooter drone" speed="6.32" length="9.04" shape="5098.17,2468.70 5098.18,2471.21 5099.01,2473.05 5100.66,2474.20 5103.12,2474.68"/>
    </edge>
    <edge id=":10172868202_4" function="internal">
        <lane id=":10172868202_4_0" index="0" disallow="tram rail_urban rail rail_electric rail_fast ship container cable_car subway aircraft wheelchair scooter drone" speed="13.89" length="14.39" shape="5098.17,2468.70 5096.00,2482.93"/>
    </edge>
    <edge id=":10172868202_5" function="internal">
        <lane id=":10172868202_5_0" index="0" disallow="tram rail_urban rail rail_electric rail_fast ship container cable_car subway aircraft wheelchair scooter drone" speed="3.65" length="1.44" shape="5098.17,2468.70 5097.21,2469.78"/>
    </edge>
    <edge id=":10172868202_9" function="internal">
        <lane id=":10172868202_9_0" index="0" disallow="tram rail_urban rail rail_electric rail_fast ship container cable_car subway aircraft wheelchair scooter drone" speed="3.65" length="3.23" shape="5097.21,2469.78 5096.37,2470.07 5095.63,2469.56 5095.00,2468.26"/>
    </edge>
    <edge id=":10172868202_6" function="internal">
        <lane id=":10172868202_6_0" index="0" disallow="tram rail_urban rail rail_electric rail_fast ship container cable_car subway aircraft wheelchair scooter drone" speed="13.89" length="14.31" shape="5092.84,2482.40 5095.00,2468.26"/>
    </edge>
    <edge id=":10172868202_7" function="internal">
        <lane id=":10172868202_7_0" index="0" disallow="tram rail_urban rail rail_electric rail_fast ship container cable_car subway aircraft wheelchair scooter drone" speed="8.39" length="3.72" shape="5092.84,2482.40 5094.00,2478.86"/>
    </edge>
    <edge id=":10172868202_8" function="internal">
        <lane id=":10172868202_8_0" index="0" disallow="tram rail_urban rail rail_electric rail_fast ship container cable_car subway aircraft wheelchair scooter drone" speed="3.65" length="1.44" shape="5092.84,2482.40 5093.83,2481.35"/>
    </edge>
    <edge id=":10172868202_10" function="internal">
        <lane id=":10172868202_10_0" index="0" disallow="tram rail_urban rail rail_electric rail_fast ship container cable_car subway aircraft wheelchair scooter drone" speed="8.39" length="10.58" shape="5094.00,2478.86 5096.09,2476.40 5099.14,2475.00 5103.12,2474.68"/>
    </edge>
    <edge id=":10172868202_11" function="internal">
        <lane id=":10172868202_11_0" index="0" disallow="tram rail_urban rail rail_electric rail_fast ship container cable_car subway aircraft wheelchair scooter drone" speed="3.65" length="3.23" shape="5093.83,2481.35 5094.69,2481.09 5095.41,2481.62 5096.00,2482.93"/>
    </edge>
    <edge id=":10172868207_0" function="internal">
        <lane id=":10172868207_0_0" index="0" disallow="tram rail_urban rail rail_electric rail_fast ship container cable_car subway aircraft wheelchair scooter drone" speed="6.69" length="9.28" shape="5091.23,2547.07 5088.64,2547.13 5086.66,2547.94 5085.30,2549.53 5084.56,2551.88"/>
    </edge>
    <edge id=":10172868207_1" function="internal">
        <lane id=":10172868207_1_0" index="0" disallow="tram rail_urban rail rail_electric rail_fast ship container cable_car subway aircraft wheelchair scooter drone" speed="7.91" length="14.40" shape="5091.23,2547.07 5087.38,2546.07 5084.85,2544.07 5083.63,2541.09 5083.72,2537.12"/>
    </edge>
    <edge id=":10172868207_2" function="internal">
        <lane id=":10172868207_2_0" index="0" disallow="tram rail_urban rail rail_electric rail_fast ship container cable_car subway aircraft wheelchair scooter drone" speed="3.65" length="4.67" shape="5091.23,2547.07 5090.13,2546.14 5089.82,2545.30 5090.31,2544.55 5091.59,2543.89"/>
    </edge>
    <edge id=":10172868207_3" function="internal">
        <lane id=":10172868207_3_0" index="0" disallow="tram rail_urban rail rail_electric rail_fast ship container cable_car subway aircraft wheelchair scooter drone" speed="6.40" length="9.04" shape="5086.88,2537.64 5086.82,2540.14 5087.59,2542.01 5089.18,2543.26 5091.59,2543.89"/>
    </edge>
    <edge id=":10172868207_4" function="internal">
        <lane id=":10172868207_4_0" index="0" disallow="tram rail_urban rail rail_electric rail_fast ship container cable_car subway aircraft wheelchair scooter drone" speed="13.89" length="14.42" shape="5086.88,2537.64 5084.56,2551.88"/>
    </edge>
    <edge id=":10172868207_5" function="internal">
        <lane id=":10172868207_5_0" index="0" disallow="tram rail_urban rail rail_electric rail_fast ship container cable_car subway aircraft wheelchair scooter drone" speed="3.65" length="1.44" shape="5086.88,2537.64 5085.89,2538.70"/>
    </edge>
    <edge id=":10172868207_9" function="internal">
        <lane id=":10172868207_9_0" index="0" disallow="tram rail_urban rail rail_electric rail_fast ship container cable_car subway aircraft wheelchair scooter drone" speed="3.65" length="3.23" shape="5085.89,2538.70 5085.03,2538.96 5084.31,2538.43 5083.72,2537.12"/>
    </edge>
    <edge id=":10172868207_6" function="internal">
        <lane id=":10172868207_6_0" index="0" disallow="tram rail_urban rail rail_electric rail_fast ship container cable_car subway aircraft wheelchair scooter drone" speed="13.89" length="14.45" shape="5081.40,2551.37 5083.72,2537.12"/>
    </edge>
    <edge id=":10172868207_7" function="internal">
        <lane id=":10172868207_7_0" index="0" disallow="tram rail_urban rail rail_electric rail_fast ship container cable_car subway aircraft wheelchair scooter drone" speed="8.16" length="4.02" shape="5081.40,2551.37 5082.54,2547.73 5082.67,2547.58"/>
    </edge>
    <edge id=":10172868207_8" function="internal">
        <lane id=":10172868207_8_0" index="0" disallow="tram rail_urban rail rail_electric rail_fast ship container cable_car subway aircraft wheelchair scooter drone" speed="3.65" length="1.44" shape="5081.40,2551.37 5082.38,2550.32"/>
    </edge>
    <edge id=":10172868207_10" function="internal">
        <lane id=":10172868207_10_0" index="0" disallow="tram rail_urban rail rail_electric rail_fast ship container cable_car subway aircraft wheelchair scooter drone" speed="8.16" length="10.26" shape="5082.67,2547.58 5084.62,2545.26 5087.64,2543.98 5091.59,2543.89"/>
    </edge>
    <edge id=":10172868207_11" function="internal">
        <lane id=":10172868207_11_0" index="0" disallow="tram rail_urban rail rail_electric rail_fast ship container cable_car subway aircraft wheelchair scooter drone" speed="3.65" length="3.23" shape="5082.38,2550.32 5083.23,2550.05 5083.96,2550.57 5084.56,2551.88"/>
    </edge>
    <edge id=":10172868208_0" function="internal">
        <lane id=":10172868208_0_0" index="0" disallow="tram rail_urban rail rail_electric rail_fast ship container cable_car subway aircraft wheelchair scooter drone" speed="6.42" length="9.04" shape="5127.11,2479.04 5124.63,2479.27 5122.86,2480.25 5121.78,2481.97 5121.41,2484.43"/>
    </edge>
    <edge id=":10172868208_1" function="internal">
        <lane id=":10172868208_1_0" index="0" disallow="tram rail_urban rail rail_electric rail_fast ship container cable_car subway aircraft wheelchair scooter drone" speed="13.89" length="14.41" shape="5127.11,2479.04 5112.72,2478.34"/>
    </edge>
    <edge id=":10172868208_2" function="internal">
        <lane id=":10172868208_2_0" index="0" disallow="tram rail_urban rail rail_electric rail_fast ship container cable_car subway aircraft wheelchair scooter drone" speed="3.65" length="1.44" shape="5127.11,2479.04 5125.95,2478.18"/>
    </edge>
    <edge id=":10172868208_9" function="internal">
        <lane id=":10172868208_9_0" index="0" disallow="tram rail_urban rail rail_electric rail_fast ship container cable_car subway aircraft wheelchair scooter drone" speed="3.65" length="3.23" shape="5125.95,2478.18 5125.59,2477.36 5126.03,2476.58 5127.27,2475.84"/>
    </edge>
    <edge id=":10172868208_3" function="internal">
        <lane id=":10172868208_3_0" index="0" disallow="tram rail_urban rail rail_electric rail_fast ship container cable_car subway aircraft wheelchair scooter drone" speed="13.89" length="14.41" shape="5112.88,2475.15 5127.27,2475.84"/>
    </edge>
    <edge id=":10172868208_4" function="internal">
        <lane id=":10172868208_4_0" index="0" disallow="tram rail_urban rail rail_electric rail_fast ship container cable_car subway aircraft wheelchair scooter drone" speed="8.14" length="4.00" shape="5112.88,2475.15 5116.64,2475.88 5116.78,2475.98"/>
    </edge>
    <edge id=":10172868208_5" function="internal">
        <lane id=":10172868208_5_0" index="0" disallow="tram rail_urban rail rail_electric rail_fast ship container cable_car subway aircraft wheelchair scooter drone" speed="3.65" length="1.44" shape="5112.88,2475.15 5114.04,2476.00"/>
    </edge>
    <edge id=":10172868208_10" function="internal">
        <lane id=":10172868208_10_0" index="0" disallow="tram rail_urban rail rail_electric rail_fast ship container cable_car subway aircraft wheelchair scooter drone" speed="8.14" length="10.25" shape="5116.78,2475.98 5119.31,2477.67 5120.90,2480.52 5121.41,2484.43"/>
    </edge>
    <edge id=":10172868208_11" function="internal">
        <lane id=":10172868208_11_0" index="0" disallow="tram rail_urban rail rail_electric rail_fast ship container cable_car subway aircraft wheelchair scooter drone" speed="3.65" length="3.23" shape="5114.04,2476.00 5114.40,2476.82 5113.96,2477.60 5112.72,2478.34"/>
    </edge>
    <edge id=":10172868208_6" function="internal">
        <lane id=":10172868208_6_0" index="0" disallow="tram rail_urban rail rail_electric rail_fast ship container cable_car subway aircraft wheelchair scooter drone" speed="6.67" length="9.24" shape="5118.21,2484.40 5117.88,2481.85 5116.86,2479.99 5115.14,2478.82 5112.72,2478.34"/>
    </edge>
    <edge id=":10172868208_7" function="internal">
        <lane id=":10172868208_7_0" index="0" disallow="tram rail_urban rail rail_electric rail_fast ship container cable_car subway aircraft wheelchair scooter drone" speed="7.93" length="14.35" shape="5118.21,2484.40 5118.80,2480.49 5120.51,2477.76 5123.33,2476.21 5127.27,2475.84"/>
    </edge>
    <edge id=":10172868208_8" function="internal">
        <lane id=":10172868208_8_0" index="0" disallow="tram rail_urban rail rail_electric rail_fast ship container cable_car subway aircraft wheelchair scooter drone" speed="3.65" length="4.67" shape="5118.21,2484.40 5119.02,2483.21 5119.82,2482.82 5120.62,2483.22 5121.41,2484.43"/>
    </edge>
    <edge id=":10228331245_0" function="internal">
        <lane id=":10228331245_0_0" index="0" disallow="tram rail_urban rail rail_electric rail_fast ship container cable_car subway aircraft wheelchair scooter drone" speed="3.65" length="4.67" shape="5661.19,1705.64 5662.39,1706.45 5662.78,1707.25 5662.38,1708.05 5661.17,1708.84"/>
    </edge>
    <edge id=":10280133266_0" function="internal">
        <lane id=":10280133266_0_0" index="0" allow="pedestrian delivery bicycle" speed="5.56" length="15.66" shape="4734.75,2000.12 4737.22,2002.96 4740.49,2005.16 4744.14,2006.91 4747.77,2008.37"/>
    </edge>
    <edge id=":10280133266_1" function="internal">
        <lane id=":10280133266_1_0" index="0" allow="pedestrian delivery bicycle" speed="5.56" length="9.85" shape="4734.75,2000.12 4736.30,2003.30 4736.53,2005.52 4735.46,2006.80 4733.07,2007.14"/>
    </edge>
    <edge id=":10280133266_2" function="internal">
        <lane id=":10280133266_2_0" index="0" allow="pedestrian delivery bicycle" speed="5.56" length="15.28" shape="4733.22,2003.94 4736.94,2004.47 4740.62,2005.55 4744.24,2006.93 4747.77,2008.37"/>
    </edge>
    <edge id=":10280133266_3" function="internal">
        <lane id=":10280133266_3_0" index="0" allow="pedestrian delivery bicycle" speed="3.65" length="4.67" shape="4733.22,2003.94 4734.38,2004.80 4734.74,2005.61 4734.31,2006.40 4733.07,2007.14"/>
    </edge>
    <edge id=":10280133273_0" function="internal">
        <lane id=":10280133273_0_0" index="0" allow="pedestrian delivery bicycle" speed="5.56" length="11.50" shape="4750.05,1959.73 4746.84,1960.02 4744.36,1960.63 4742.13,1961.82 4739.65,1963.84"/>
    </edge>
    <edge id=":10280133273_1" function="internal">
        <lane id=":10280133273_1_0" index="0" allow="pedestrian delivery bicycle" speed="5.56" length="11.04" shape="4750.05,1959.73 4746.91,1959.98 4744.52,1960.16 4742.15,1960.10 4739.06,1959.64"/>
    </edge>
    <edge id=":10280133273_2" function="internal">
        <lane id=":10280133273_2_0" index="0" allow="pedestrian delivery bicycle" speed="5.56" length="10.35" shape="4739.68,1956.50 4742.15,1957.45 4742.96,1958.99 4742.13,1961.12 4739.65,1963.84"/>
    </edge>
    <edge id=":10280133273_3" function="internal">
        <lane id=":10280133273_3_0" index="0" allow="pedestrian delivery bicycle" speed="3.65" length="4.67" shape="4739.68,1956.50 4740.71,1957.52 4740.94,1958.38 4740.39,1959.09 4739.06,1959.64"/>
    </edge>
    <edge id=":10280133275_0" function="internal">
        <lane id=":10280133275_0_0" index="0" allow="pedestrian delivery bicycle" speed="5.56" length="11.30" shape="4771.56,2010.14 4768.55,2009.54 4767.38,2008.10 4768.04,2005.82 4770.54,2002.69"/>
    </edge>
    <edge id=":10280133275_1" function="internal">
        <lane id=":10280133275_1_0" index="0" allow="pedestrian delivery bicycle" speed="3.65" length="4.67" shape="4771.56,2010.14 4770.40,2009.29 4770.03,2008.47 4770.47,2007.69 4771.70,2006.94"/>
    </edge>
    <edge id=":10280133275_2" function="internal">
        <lane id=":10280133275_2_0" index="0" allow="pedestrian delivery bicycle" speed="5.56" length="12.55" shape="4759.66,2008.37 4762.95,2007.65 4765.65,2006.58 4768.07,2004.99 4770.54,2002.69"/>
    </edge>
    <edge id=":10280133275_3" function="internal">
        <lane id=":10280133275_3_0" index="0" allow="pedestrian delivery bicycle" speed="5.56" length="12.16" shape="4759.66,2008.37 4762.92,2007.78 4765.66,2007.28 4768.40,2006.96 4771.70,2006.94"/>
    </edge>
    <edge id=":10280133289_0" function="internal">
        <lane id=":10280133289_0_0" index="0" allow="pedestrian delivery bicycle" speed="5.56" length="14.08" shape="4773.83,1969.28 4771.58,1966.46 4769.04,1964.14 4766.13,1962.33 4762.77,1961.03"/>
    </edge>
    <edge id=":10280133289_1" function="internal">
        <lane id=":10280133289_1_0" index="0" allow="pedestrian delivery bicycle" speed="5.56" length="10.70" shape="4773.83,1969.28 4771.98,1966.00 4771.65,1963.68 4772.86,1962.32 4775.60,1961.93"/>
    </edge>
    <edge id=":10280133289_2" function="internal">
        <lane id=":10280133289_2_0" index="0" allow="pedestrian delivery bicycle" speed="5.56" length="13.45" shape="4775.51,1965.12 4772.09,1964.63 4769.07,1963.55 4766.09,1962.24 4762.77,1961.03"/>
    </edge>
    <edge id=":10280133289_3" function="internal">
        <lane id=":10280133289_3_0" index="0" allow="pedestrian delivery bicycle" speed="3.65" length="4.67" shape="4775.51,1965.12 4774.34,1964.29 4773.96,1963.48 4774.38,1962.69 4775.60,1961.93"/>
    </edge>
    <edge id=":10280133290_0" function="internal">
        <lane id=":10280133290_0_0" index="0" allow="pedestrian delivery bicycle" speed="5.56" length="10.76" shape="4932.13,1964.56 4929.77,1966.54 4928.18,1968.19 4926.83,1970.04 4925.13,1972.64"/>
    </edge>
    <edge id=":10280133290_1" function="internal">
        <lane id=":10280133290_1_0" index="0" allow="pedestrian delivery bicycle" speed="5.56" length="10.33" shape="4932.13,1964.56 4929.78,1966.56 4928.04,1967.92 4926.11,1968.68 4923.15,1968.87"/>
    </edge>
    <edge id=":10280133290_2" function="internal">
        <lane id=":10280133290_2_0" index="0" allow="pedestrian delivery bicycle" speed="5.56" length="9.82" shape="4923.23,1965.67 4925.73,1966.17 4926.87,1967.49 4926.68,1969.65 4925.13,1972.64"/>
    </edge>
    <edge id=":10280133290_3" function="internal">
        <lane id=":10280133290_3_0" index="0" allow="pedestrian delivery bicycle" speed="3.65" length="4.67" shape="4923.23,1965.67 4924.41,1966.50 4924.79,1967.31 4924.37,1968.10 4923.15,1968.87"/>
    </edge>
    <edge id=":10280133296_0" function="internal">
        <lane id=":10280133296_0_0" index="0" allow="pedestrian delivery bicycle" speed="5.56" length="10.19" shape="4927.09,2005.98 4928.84,2008.41 4930.71,2010.26 4932.70,2011.52 4934.81,2012.20"/>
    </edge>
    <edge id=":10280133296_1" function="internal">
        <lane id=":10280133296_1_0" index="0" allow="pedestrian delivery bicycle" speed="5.56" length="10.35" shape="4927.09,2005.98 4928.72,2009.24 4928.95,2011.56 4927.80,2012.92 4925.25,2013.35"/>
    </edge>
    <edge id=":10280133296_2" function="internal">
        <lane id=":10280133296_2_0" index="0" allow="pedestrian delivery bicycle" speed="5.56" length="9.77" shape="4925.29,2010.15 4928.16,2010.38 4930.08,2010.88 4931.98,2011.53 4934.81,2012.20"/>
    </edge>
    <edge id=":10280133296_3" function="internal">
        <lane id=":10280133296_3_0" index="0" allow="pedestrian delivery bicycle" speed="3.65" length="4.67" shape="4925.29,2010.15 4926.48,2010.97 4926.87,2011.77 4926.46,2012.57 4925.25,2013.35"/>
    </edge>
    <edge id=":10280133308_0" function="internal">
        <lane id=":10280133308_0_0" index="0" allow="pedestrian delivery bicycle" speed="5.56" length="11.75" shape="4964.55,2013.97 4961.28,2013.45 4960.01,2012.05 4960.73,2009.78 4963.45,2006.63"/>
    </edge>
    <edge id=":10280133308_1" function="internal">
        <lane id=":10280133308_1_0" index="0" allow="pedestrian delivery bicycle" speed="3.65" length="4.67" shape="4964.55,2013.97 4963.37,2013.15 4962.99,2012.34 4963.40,2011.55 4964.62,2010.77"/>
    </edge>
    <edge id=":10280133308_2" function="internal">
        <lane id=":10280133308_2_0" index="0" allow="pedestrian delivery bicycle" speed="5.56" length="11.65" shape="4953.66,2012.54 4956.75,2011.67 4959.04,2010.50 4961.09,2008.87 4963.45,2006.63"/>
    </edge>
    <edge id=":10280133308_3" function="internal">
        <lane id=":10280133308_3_0" index="0" allow="pedestrian delivery bicycle" speed="5.56" length="11.14" shape="4953.66,2012.54 4956.74,2011.81 4959.10,2011.23 4961.49,2010.86 4964.62,2010.77"/>
    </edge>
    <edge id=":10280133310_0" function="internal">
        <lane id=":10280133310_0_0" index="0" allow="pedestrian delivery bicycle" speed="3.65" length="4.67" shape="4905.82,2092.54 4904.64,2091.71 4904.26,2090.90 4904.68,2090.11 4905.90,2089.34"/>
    </edge>
    <edge id=":10280133319_0" function="internal">
        <lane id=":10280133319_0_0" index="0" allow="pedestrian delivery bicycle" speed="5.56" length="7.78" shape="5432.42,1858.58 5432.17,1860.70 5431.29,1862.22 5429.80,1863.15 5427.69,1863.48"/>
    </edge>
    <edge id=":10280133319_1" function="internal">
        <lane id=":10280133319_1_0" index="0" allow="pedestrian delivery bicycle" speed="3.90" length="2.59" shape="5427.65,1860.28 5428.35,1860.17 5428.85,1859.86 5429.14,1859.35 5429.22,1858.65"/>
    </edge>
    <edge id=":10280133320_0" function="internal">
        <lane id=":10280133320_0_0" index="0" allow="pedestrian delivery bicycle" speed="5.56" length="9.48" shape="5413.99,1708.69 5413.76,1699.21"/>
    </edge>
    <edge id=":10280133320_1" function="internal">
        <lane id=":10280133320_1_0" index="0" allow="pedestrian delivery bicycle" speed="5.56" length="10.98" shape="5413.99,1708.69 5414.35,1705.63 5415.62,1703.58 5417.80,1702.54 5420.88,1702.52"/>
    </edge>
    <edge id=":10280133320_2" function="internal">
        <lane id=":10280133320_2_0" index="0" allow="pedestrian delivery bicycle" speed="3.65" length="4.67" shape="5413.99,1708.69 5414.76,1707.47 5415.55,1707.05 5416.36,1707.43 5417.19,1708.61"/>
    </edge>
    <edge id=":10280133320_3" function="internal">
        <lane id=":10280133320_3_0" index="0" allow="pedestrian delivery bicycle" speed="4.89" length="5.20" shape="5420.45,1705.69 5418.99,1705.70 5417.96,1706.19 5417.36,1707.16 5417.19,1708.61"/>
    </edge>
    <edge id=":10280133320_4" function="internal">
        <lane id=":10280133320_4_0" index="0" allow="pedestrian delivery bicycle" speed="5.56" length="10.28" shape="5420.45,1705.69 5417.57,1704.95 5415.50,1703.62 5414.23,1701.71 5413.76,1699.21"/>
    </edge>
    <edge id=":10280133320_5" function="internal">
        <lane id=":10280133320_5_0" index="0" allow="pedestrian delivery bicycle" speed="3.65" length="4.67" shape="5420.45,1705.69 5419.37,1704.73 5419.08,1703.89 5419.58,1703.15 5420.88,1702.52"/>
    </edge>
    <edge id=":10280133320_6" function="internal">
        <lane id=":10280133320_6_0" index="0" allow="pedestrian delivery bicycle" speed="5.56" length="5.70" shape="5416.95,1699.13 5417.23,1700.42 5417.97,1701.41 5419.19,1702.11 5420.88,1702.52"/>
    </edge>
    <edge id=":10280133320_7" function="internal">
        <lane id=":10280133320_7_0" index="0" allow="pedestrian delivery bicycle" speed="5.56" length="9.48" shape="5416.95,1699.13 5417.19,1708.61"/>
    </edge>
    <edge id=":10280133320_8" function="internal">
        <lane id=":10280133320_8_0" index="0" allow="pedestrian delivery bicycle" speed="3.65" length="4.67" shape="5416.95,1699.13 5416.18,1700.35 5415.39,1700.77 5414.58,1700.39 5413.76,1699.21"/>
    </edge>
    <edge id=":10281695760_0" function="internal">
        <lane id=":10281695760_0_0" index="0" allow="pedestrian delivery bicycle" speed="3.65" length="4.67" shape="4905.60,2667.84 4906.66,2668.81 4906.94,2669.67 4906.42,2670.40 4905.12,2671.01"/>
    </edge>
    <edge id=":10315579410_0" function="internal">
        <lane id=":10315579410_0_0" index="0" allow="pedestrian delivery bicycle" speed="5.56" length="9.34" shape="4382.78,2749.65 4373.52,2750.94"/>
    </edge>
    <edge id=":10315579410_1" function="internal">
        <lane id=":10315579410_1_0" index="0" allow="pedestrian delivery bicycle" speed="5.56" length="10.14" shape="4382.78,2749.65 4380.08,2749.61 4377.98,2748.69 4376.50,2746.89 4375.62,2744.21"/>
    </edge>
    <edge id=":10315579410_2" function="internal">
        <lane id=":10315579410_2_0" index="0" allow="pedestrian delivery bicycle" speed="3.65" length="4.67" shape="4382.78,2749.65 4381.48,2749.02 4380.98,2748.28 4381.28,2747.43 4382.36,2746.48"/>
    </edge>
    <edge id=":10315579410_3" function="internal">
        <lane id=":10315579410_3_0" index="0" allow="pedestrian delivery bicycle" speed="5.19" length="5.17" shape="4378.77,2743.63 4379.22,2745.03 4379.96,2745.97 4381.01,2746.45 4382.36,2746.48"/>
    </edge>
    <edge id=":10315579410_4" function="internal">
        <lane id=":10315579410_4_0" index="0" allow="pedestrian delivery bicycle" speed="5.56" length="10.34" shape="4378.77,2743.63 4378.88,2746.48 4378.04,2748.64 4376.26,2750.13 4373.52,2750.94"/>
    </edge>
    <edge id=":10315579410_5" function="internal">
        <lane id=":10315579410_5_0" index="0" allow="pedestrian delivery bicycle" speed="3.65" length="4.67" shape="4378.77,2743.63 4378.20,2744.96 4377.48,2745.49 4376.63,2745.24 4375.62,2744.21"/>
    </edge>
    <edge id=":10315579410_6" function="internal">
        <lane id=":10315579410_6_0" index="0" allow="pedestrian delivery bicycle" speed="5.00" length="5.04" shape="4373.06,2747.77 4374.40,2747.38 4375.27,2746.65 4375.68,2745.60 4375.62,2744.21"/>
    </edge>
    <edge id=":10315579410_7" function="internal">
        <lane id=":10315579410_7_0" index="0" allow="pedestrian delivery bicycle" speed="5.56" length="9.38" shape="4373.06,2747.77 4382.36,2746.48"/>
    </edge>
    <edge id=":10315579410_8" function="internal">
        <lane id=":10315579410_8_0" index="0" allow="pedestrian delivery bicycle" speed="3.65" length="4.67" shape="4373.06,2747.77 4374.37,2748.39 4374.88,2749.12 4374.60,2749.97 4373.52,2750.94"/>
    </edge>
    <edge id=":10315579411_0" function="internal">
        <lane id=":10315579411_0_0" index="0" allow="pedestrian delivery bicycle" speed="5.14" length="5.12" shape="4360.12,2659.55 4359.68,2658.18 4358.93,2657.27 4357.88,2656.81 4356.52,2656.81"/>
    </edge>
    <edge id=":10315579411_1" function="internal">
        <lane id=":10315579411_1_0" index="0" allow="pedestrian delivery bicycle" speed="5.56" length="10.31" shape="4360.12,2659.55 4360.01,2656.71 4360.85,2654.55 4362.62,2653.06 4365.34,2652.24"/>
    </edge>
    <edge id=":10315579411_2" function="internal">
        <lane id=":10315579411_2_0" index="0" allow="pedestrian delivery bicycle" speed="3.65" length="4.67" shape="4360.12,2659.55 4360.69,2658.22 4361.41,2657.69 4362.27,2657.94 4363.27,2658.97"/>
    </edge>
    <edge id=":10315579411_3" function="internal">
        <lane id=":10315579411_3_0" index="0" allow="pedestrian delivery bicycle" speed="5.01" length="5.04" shape="4365.82,2655.40 4364.49,2655.80 4363.62,2656.53 4363.22,2657.59 4363.27,2658.97"/>
    </edge>
    <edge id=":10315579411_4" function="internal">
        <lane id=":10315579411_4_0" index="0" allow="pedestrian delivery bicycle" speed="5.56" length="9.40" shape="4365.82,2655.40 4356.52,2656.81"/>
    </edge>
    <edge id=":10315579411_5" function="internal">
        <lane id=":10315579411_5_0" index="0" allow="pedestrian delivery bicycle" speed="3.65" length="4.67" shape="4365.82,2655.40 4364.51,2654.79 4364.00,2654.06 4364.27,2653.21 4365.34,2652.24"/>
    </edge>