<?xml version="1.0" encoding="UTF-8"?>

<!-- generated on 2026-03-14 18:37:00 by Eclipse SUMO duarouter Version 1.24.0
<duarouterConfiguration xmlns:xsi="http://www.w3.org/2001/XMLSchema-instance" xsi:noNamespaceSchemaLocation="http://sumo.dlr.de/xsd/duarouterConfiguration.xsd">

    <input>
        <net-file value="chennai.net.xml"/>
        <route-files value="trips.trips.xml"/>
    </input>

    <output>
        <output-file value="routes.rou.xml"/>
    </output>

</duarouterConfiguration>
-->

<routes xmlns:xsi="http://www.w3.org/2001/XMLSchema-instance" xsi:noNamespaceSchemaLocation="http://sumo.dlr.de/xsd/routes_file.xsd">
    <vehicle id="0" depart="0.00">
        <route edges="214598750#0 24831572 -24831588#5 -24831588#4 -24831588#3 -24831588#2 -24831588#1 -24831588#0 -24831564#6 -24831564#5 -24831564#4 -24831564#3 -24831564#2 -24831564#1 -24831564#0 566857134#1 566857134#2 209582669 1015894852#0 1015894852#1 -1192341483"/>
    </vehicle>
    <vehicle id="1" depart="5.00">
        <route edges="-24831571 -24831588#3 -24831588#2 -24831588#1 -24831588#0 -24831564#6 -24831564#5 -24831564#4 -24831564#3 -24831564#2 -24831564#1 -24831564#0 566857134#1 566857134#2 566857134#3 22688331#0 22688331#1 22688331#2 22688331#3 22688331#4 22688331#5 22688331#6 22688331#7 24730725#0 24730725#1 1427826037 793704832#0 793704832#1 793704832#2 795471462#0 795471462#1 795471462#2 795471462#3 1124055509 214413833#0 214413833#1 1124055508 102469913 102469929#0 217763953#0 217763953#1 217763953#2 217763953#3 217763953#4 217763953#5 217763953#6 217763953#7 217763953#8 217763953#9 30347081#0 30347081#1 30347081#2 30347081#3 30347081#4 30347081#5 30347081#6 30347081#7 -102469934 -1268033256 -1057045248#2 -1057045248#1 -24775502 24775548#3 24775604#0 -1192618217#0 1267632916 -24775606#1 -24775606#0"/>
    </vehicle>
    <vehicle id="2" depart="10.00">
        <route edges="24775562#2 1057045248#2 1268033256 102469934 -30347081#7 -30347081#6 -30347081#5 -30347081#4 -30347081#3 -30347081#2 -30347081#1 -30347081#0 -217763953#9 -217763953#8 -217763953#7 -217763953#6 217763953#6"/>
    </vehicle>
    <vehicle id="3" depart="15.00">
        <route edges="-24775595#5 -24775595#4 -24775548#7 -24775548#6 -24775548#5 -24775548#4 -24775548#3 24775502 1057045248#1 1057045248#2 1268033256 102469934 -30347081#7 -30347081#6 -30347081#5 -30347081#4 1267659043"/>
    </vehicle>
    <vehicle id="4" depart="20.00">
        <route edges="-1190296572 -28233736#1 -28233736#0 95641233 1239082019 333394471#0 333394471#1 1031127132#0 1031127132#1 211260242#0 1427826037 793704832#0 793704832#1 793704832#2 795471462#0 795471462#1 795471462#2 795471462#3 1124055509 214413833#0 214413833#1 -24775596#8 -24775596#7 -24775596#6 -24775596#5 -24775596#4 -24775596#3 -24775596#2 -24775596#1 -24775596#0"/>
    </vehicle>
    <vehicle id="5" depart="25.00">
        <route edges="24831576#2 214413836#2 214413836#3 1100207882#0 1100207882#1 566857134#0 566857134#1 566857134#2 566857134#3 22688331#0 22688331#1 22688331#2 22688331#3 22688331#4 22688331#5 22688331#6 22688331#7 24730725#0 24730725#1 1427826037 793704832#0 793704832#1 793704832#2 795471462#0 795471462#1 795471462#2 795471462#3 1124055509 214413833#0 214413833#1 1124055508 102469913 102469929#0 217763953#0 217763953#1 217763953#2 217763953#3 217763953#4 217763953#5 217763953#6 217763953#7 217763953#8 217763953#9 30347081#0 30347081#1 30347081#2 30347081#3 30347081#4 30347081#5 30347081#6 30347081#7 -102469934 -1268033256 -1057045248#2"/>
    </vehicle>
    <vehicle id="6" depart="30.00">
        <route edges="24831576#0 24831576#1 24831576#2 214413836#2 214413836#3 1100207882#0 1100207882#1 566857134#0 566857134#1 566857134#2 566857134#3 22688331#0 22688331#1 22688331#2 22688331#3 22688331#4 22688331#5 22688331#6 22688331#7 24730725#0 24730725#1 211260242#1 211260242#2 211260242#3 211260242#4 211260242#5 1467749414 22922908#3 22922908#4 22922908#5"/>
    </vehicle>
    <vehicle id="7" depart="35.00">
        <route edges="-30347081#0 -217763953#9 23110083#0 -23110083#0"/>
    </vehicle>
    <vehicle id="8" depart="40.00">
        <route edges="-1386101050 -207145441#0 28234118#1 28234118#2 28234118#3 28234118#4 28234118#5 28234118#6 28234118#7 28234119 -28233736#3 -28233736#2 -28233736#1 -28233736#0 95641233 1239082019 333394471#0 333394471#1 1031127132#0 1031127132#1 319828651#0 319828651#1 319828651#2 319828651#3 319828651#4 319828651#5 186477184#0 186477184#1 186477184#2 186477184#3 240320629#0 240320629#1 1015894852#0 1015894852#1 -1192341483 -206819132#2"/>
    </vehicle>
    <vehicle id="9" depart="45.00">
        <route edges="27442429#1 -27442429#1 -27442429#0 -1220214625#1 -1220214625#0 566857134#2 566857134#3 22688331#0 22688331#1 22688331#2 22688331#3 22688331#4 22688331#5 22688331#6 22688331#7 24730725#0 24730725#1 1427826037 793704832#0 793704832#1 793704832#2 795471462#0 795471462#1 795471462#2 795471462#3 1124055509 214413833#0 214413833#1 -24775596#8 -35015489#2 -35015489#1 -35015489#0 -24775595#10 -24775595#9 -24775595#8 -24775595#7 -24775595#6 -24775595#5 -24775595#4 -24775595#3 207147905#0 207147905#1 207147916"/>
    </vehicle>
</routes>
