<?xml version="1.0" encoding="UTF-8"?>

<!-- generated on 2026-03-14 18:36:41.505356 by randomTrips.py v1_24_0+0000-b72eb3fabc8
<configuration>
    <net-file value="chennai.net.xml"/>
    <end value="50.0"/>
    <period value="5.0"/>
</configuration>
-->

<routes xmlns:xsi="http://www.w3.org/2001/XMLSchema-instance" xsi:noNamespaceSchemaLocation="http://sumo.dlr.de/xsd/routes_file.xsd">
    <trip id="0" depart="0.00" from="214598750#0" to="-1192341483"/>
    <trip id="1" depart="5.00" from="-24831571" to="-24775606#0"/>
    <trip id="2" depart="10.00" from="24775562#2" to="217763953#6"/>
    <trip id="3" depart="15.00" from="-24775595#5" to="1267659043"/>
    <trip id="4" depart="20.00" from="-1190296572" to="-24775596#0"/>
    <trip id="5" depart="25.00" from="24831576#2" to="-1057045248#2"/>
    <trip id="6" depart="30.00" from="24831576#0" to="22922908#5"/>
    <trip id="7" depart="35.00" from="-30347081#0" to="-23110083#0"/>
    <trip id="8" depart="40.00" from="-1386101050" to="-206819132#2"/>
    <trip id="9" depart="45.00" from="27442429#1" to="207147916"/>
</routes>
